Version 4
SHEET 1 1976 1068
WIRE 336 16 272 16
WIRE 432 16 336 16
WIRE 688 16 432 16
WIRE 816 16 688 16
WIRE 880 16 816 16
WIRE -448 32 -592 32
WIRE -336 32 -448 32
WIRE -144 32 -256 32
WIRE -48 32 -144 32
WIRE -16 32 -48 32
WIRE 432 48 432 16
WIRE -592 64 -592 32
WIRE -144 64 -144 32
WIRE 336 80 336 16
WIRE 336 80 272 80
WIRE 688 80 688 16
WIRE -448 128 -448 32
WIRE -48 128 -48 32
WIRE -16 128 -48 128
WIRE -144 144 -144 128
WIRE 336 144 272 144
WIRE 432 144 432 112
WIRE -592 160 -592 128
WIRE 688 176 688 160
WIRE 816 192 816 16
WIRE 128 256 128 192
WIRE 688 288 688 256
WIRE -592 368 -640 368
WIRE -448 368 -448 208
WIRE -448 368 -592 368
WIRE 688 416 688 352
WIRE 816 416 816 272
WIRE -592 432 -592 368
WIRE -448 464 -448 368
WIRE -352 464 -448 464
WIRE -192 464 -288 464
WIRE -80 464 -192 464
WIRE -192 496 -192 464
WIRE -448 512 -448 464
WIRE -592 528 -592 496
WIRE 624 592 624 544
WIRE -448 640 -448 576
WIRE -448 640 -864 640
WIRE -352 640 -448 640
WIRE -192 640 -192 560
WIRE -192 640 -288 640
WIRE -448 688 -448 640
WIRE 624 704 624 672
WIRE 784 704 624 704
WIRE 816 704 784 704
WIRE 928 704 816 704
WIRE 816 736 816 704
WIRE 576 784 544 784
WIRE -448 800 -448 768
WIRE -240 800 -448 800
WIRE -80 800 -80 464
WIRE -80 800 -240 800
WIRE 624 848 624 800
WIRE 816 848 816 816
WIRE 544 928 544 784
FLAG -640 368 Vrect
IOPIN -640 368 Out
FLAG -864 640 Vin
IOPIN -864 640 Out
FLAG -592 528 0
FLAG 816 416 0
FLAG -144 144 0
FLAG 432 144 0
FLAG 880 16 Vd
IOPIN 880 16 Out
FLAG 128 256 0
FLAG 624 848 0
FLAG 624 544 Vd
IOPIN 624 544 In
FLAG 784 704 GPIO
FLAG 816 848 0
FLAG 688 416 0
FLAG 544 928 Vin
IOPIN 544 928 In
FLAG 928 704 Vgpio
IOPIN 928 704 Out
FLAG -592 160 0
FLAG -240 800 AC-GND
FLAG -192 640 0
SYMBOL schottky -176 560 R180
WINDOW 0 24 64 Left 2
WINDOW 3 24 0 Left 2
SYMATTR InstName D3
SYMATTR Value 1N5819
SYMBOL schottky -432 576 R180
WINDOW 0 24 64 Left 2
WINDOW 3 24 0 Left 2
SYMATTR InstName D1
SYMATTR Value 1N5819
SYMBOL schottky -288 624 R90
WINDOW 0 0 32 VBottom 2
WINDOW 3 32 32 VTop 2
SYMATTR InstName D2
SYMATTR Value 1N5819
SYMBOL schottky -288 448 R90
WINDOW 0 0 32 VBottom 2
WINDOW 3 32 32 VTop 2
SYMATTR InstName D4
SYMATTR Value 1N5819
SYMBOL voltage -448 672 R0
WINDOW 39 24 118 Left 2
SYMATTR SpiceLine Rser=371
SYMATTR InstName V1
SYMATTR Value SINE(0 90 90)
SYMBOL polcap -608 432 R0
WINDOW 3 24 56 Left 2
SYMATTR Value 47µ
SYMATTR InstName C1
SYMATTR Description Capacitor
SYMATTR Type cap
SYMATTR SpiceLine V=4R7MAH Rser=800m Lser=0 mfg="Nichicon" pn="UPR1H470MPH" type="Al electrolytic"
SYMBOL PowerProducts/LT1763-3.3 128 80 R0
SYMATTR InstName U1
SYMBOL cap -160 64 R0
SYMATTR InstName C2
SYMATTR Value 1µ
SYMATTR SpiceLine Rser=13.3m Lser=0 mfg="KEMET" pn="C1206C105K5RAC" type="X7R"
SYMBOL cap 320 80 R0
SYMATTR InstName C3
SYMATTR Value 100n
SYMATTR SpiceLine Rser=143.6m Lser=0 mfg="KEMET" pn="C0603C104K9RAC" type="X7R"
SYMBOL cap 416 48 R0
SYMATTR InstName C4
SYMATTR Value 10µ
SYMATTR SpiceLine Rser=4.6m Lser=0 mfg="KEMET" pn="C1206C106K9RAC" type="X7R"
SYMBOL current 816 192 R0
SYMATTR InstName I1
SYMATTR Value PWL(0 0 60m 0 60.001m 5m 120ms 5m 150ms 1m)
SYMBOL res -240 16 R90
WINDOW 0 0 56 VBottom 2
WINDOW 3 32 56 VTop 2
SYMATTR InstName R1
SYMATTR Value 2m
SYMBOL nmos 576 704 R0
SYMATTR InstName M1
SYMATTR Value NTLMS4502N
SYMBOL res 608 576 R0
SYMATTR InstName R3
SYMATTR Value 100k
SYMBOL res 800 720 R0
SYMATTR InstName R2
SYMATTR Value 1600k
SYMBOL cap 672 288 R0
SYMATTR InstName C5
SYMATTR Value 1.2n
SYMATTR SpiceLine Lser=0 mfg="   ---" pn="   ---" type="   ---"
SYMBOL ind 672 160 R0
SYMATTR InstName L1
SYMATTR Value 3nH
SYMATTR SpiceLine Ipk=35 Rser=650µ Rpar=77 Cpar=0 mfg="   ---" pn="   ---"
SYMBOL res 672 64 R0
SYMATTR InstName R4
SYMATTR Value 0.5m
SYMBOL zener -576 128 R180
WINDOW 0 24 64 Left 2
WINDOW 3 24 0 Left 2
SYMATTR InstName D6
SYMATTR Value EDZV15B
SYMATTR Description Diode
SYMATTR Type diode
SYMBOL res -432 224 R180
WINDOW 0 36 76 Left 2
WINDOW 3 36 40 Left 2
SYMATTR InstName R5
SYMATTR Value 2m
TEXT -368 -64 Left 2 !.tran 300ms
